Circuit: * C:\Users\CHAITANYA VARUN\Desktop\my_files\Semester_5\VLSI Design\Assignment-1\Problem-4\Draft3.asc

WARNING: Node NC_02 is floating.
WARNING: Node NC_03 is floating.
WARNING: Node NC_04 is floating.

WARNING: Less than two connections to node NC_01.  This node is used by M2.
WARNING: Less than two connections to node NC_03.  This node is used by M2.
Direct Newton iteration for .op point succeeded.

Date: Wed Nov 03 18:10:54 2021
Total elapsed time: 0.089 seconds.

tnom = 27
temp = 27
method = modified trap
totiter = 6976
traniter = 6962
tranpoints = 3413
accept = 3026
rejected = 387
matrix size = 10
fillins = 0
solver = Normal
Matrix Compiler1: 606 bytes object code size  0.1/0.1/[0.1]
Matrix Compiler2: 774 bytes object code size  0.1/0.1/[0.1]

