Circuit: * C:\Users\CHAITANYA VARUN\Desktop\my_files\Semester_5\VLSI Design\Assignment-1\Problem-4\Prob_4b.asc

Ignoring BSIM parameter XL
Ignoring BSIM parameter XW
Fatal Error: No analysis request found.
