Circuit: * C:\Users\CHAITANYA VARUN\Desktop\my_files\Semester_5\VLSI Design\Assignment-1\Problem-4\Prob_4b4.asc

Ignoring BSIM parameter XL
Ignoring BSIM parameter XW
Warning: Pd = 0 is less than W.
Warning: Ps = 0 is less than W.
.OP point found by inspection.
.step v1=0
.step v1=0.2
.step v1=0.4
.step v1=0.6
.step v1=0.8
.step v1=1

Date: Thu Oct 28 12:16:57 2021
Total elapsed time: 0.102 seconds.

tnom = 27
temp = 27
method = trap
totiter = 2185
traniter = 0
tranpoints = 0
accept = 0
rejected = 0
matrix size = 4
fillins = 0
solver = Normal
Matrix Compiler1: 118 bytes object code size  0.0/0.0/[0.0]
Matrix Compiler2: 216 bytes object code size  0.0/0.0/[0.0]

