Circuit: * C:\Users\CHAITANYA VARUN\Desktop\my_files\Semester_5\VLSI Design\Assignment-1\Problem-1\Prob_1c.asc


Date: Sat Oct 23 12:19:55 2021
Total elapsed time: 0.027 seconds.

tnom = 27
temp = 27
method = trap
totiter = 0
traniter = 0
tranpoints = 0
accept = 0
rejected = 0
matrix size = 4
fillins = 0
solver = Normal

