Circuit: * C:\Users\CHAITANYA VARUN\Desktop\my_files\Semester_5\VLSI Design\Assignment-2\Problem_2\Prob_2a.asc

Ignoring BSIM parameter XL
Ignoring BSIM parameter XW
Warning: Pd = 0 is less than W.
Warning: Ps = 0 is less than W.
Direct Newton iteration for .op point succeeded.
.step x=-1.8
.step x=-1.6
.step x=-1.4
.step x=-1.2
.step x=-1
.step x=-0.8
.step x=-0.6
.step x=-0.4
.step x=-0.2
.step x=-2.77556e-016
.step x=0.2
.step x=0.4
.step x=0.6
.step x=0.8
.step x=1
.step x=1.2
.step x=1.4
.step x=1.6
.step x=1.8


Measurement: capacitance
  step	MAX(ig(m1))	FROM	TO
     1	5.10302e-013	0.002	0.01
     2	5.08602e-013	0.002	0.01
     3	5.02376e-013	0.002	0.01
     4	4.75806e-013	0.002	0.01
     5	3.91149e-013	0.002	0.01
     6	2.90346e-013	0.002	0.01
     7	2.28558e-013	0.002	0.01
     8	1.9247e-013	0.002	0.01
     9	1.69193e-013	0.002	0.01
    10	1.52842e-013	0.002	0.01
    11	1.44375e-013	0.002	0.01
    12	4.03547e-013	0.002	0.01
    13	5.13104e-013	0.002	0.01
    14	5.13186e-013	0.002	0.01
    15	5.12777e-013	0.002	0.01
    16	5.1247e-013	0.002	0.01
    17	5.1223e-013	0.002	0.01
    18	5.12048e-013	0.002	0.01
    19	5.11895e-013	0.002	0.01


Date: Mon Nov 08 11:24:08 2021
Total elapsed time: 0.621 seconds.

tnom = 27
temp = 27
method = modified trap
totiter = 2085
traniter = 2082
tranpoints = 1042
accept = 1042
rejected = 0
matrix size = 4
fillins = 0
solver = Normal
Matrix Compiler1: 82 bytes object code size  0.0/0.0/[0.0]
Matrix Compiler2: 208 bytes object code size  0.0/0.0/[0.0]

