Circuit: * C:\Users\CHAITANYA VARUN\Desktop\my_files\Semester_5\VLSI Design\Assignment-2\Problem_1\Prob_1b2.asc

Ignoring BSIM parameter XL
Ignoring BSIM parameter XW
Warning: Pd = 0 is less than W.
Warning: Ps = 0 is less than W.
Direct Newton iteration for .op point succeeded.
.step x=-1.8
.step x=-1.79
.step x=-1.78
.step x=-1.77
.step x=-1.76
.step x=-1.75
.step x=-1.74
.step x=-1.73
.step x=-1.72
.step x=-1.71
.step x=-1.7
.step x=-1.69
.step x=-1.68
.step x=-1.67
.step x=-1.66
.step x=-1.65
.step x=-1.64
.step x=-1.63
.step x=-1.62
.step x=-1.61
.step x=-1.6
.step x=-1.59
.step x=-1.58
.step x=-1.57
.step x=-1.56
.step x=-1.55
.step x=-1.54
.step x=-1.53
.step x=-1.52
.step x=-1.51
.step x=-1.5
.step x=-1.49
.step x=-1.48
.step x=-1.47
.step x=-1.46
.step x=-1.45
.step x=-1.44
.step x=-1.43
.step x=-1.42
.step x=-1.41
.step x=-1.4
.step x=-1.39
.step x=-1.38
.step x=-1.37
.step x=-1.36
.step x=-1.35
.step x=-1.34
.step x=-1.33
.step x=-1.32
.step x=-1.31
.step x=-1.3
.step x=-1.29
.step x=-1.28
.step x=-1.27
.step x=-1.26
.step x=-1.25
.step x=-1.24
.step x=-1.23
.step x=-1.22
.step x=-1.21
.step x=-1.2
.step x=-1.19
.step x=-1.18
.step x=-1.17
.step x=-1.16
.step x=-1.15
.step x=-1.14
.step x=-1.13
.step x=-1.12
.step x=-1.11
.step x=-1.1
.step x=-1.09
.step x=-1.08
.step x=-1.07
.step x=-1.06
.step x=-1.05
.step x=-1.04
.step x=-1.03
.step x=-1.02
.step x=-1.01
.step x=-1
.step x=-0.99
.step x=-0.98
.step x=-0.97
.step x=-0.96
.step x=-0.95
.step x=-0.94
.step x=-0.93
.step x=-0.92
.step x=-0.91
.step x=-0.9
.step x=-0.89
.step x=-0.88
.step x=-0.87
.step x=-0.86
.step x=-0.85
.step x=-0.84
.step x=-0.83
.step x=-0.82
.step x=-0.81
.step x=-0.8
.step x=-0.79
.step x=-0.78
.step x=-0.77
.step x=-0.76
.step x=-0.75
.step x=-0.74
.step x=-0.73
.step x=-0.72
.step x=-0.71
.step x=-0.7
.step x=-0.69
.step x=-0.68
.step x=-0.67
.step x=-0.66
.step x=-0.65
.step x=-0.64
.step x=-0.63
.step x=-0.62
.step x=-0.61
.step x=-0.6


Measurement: req
  step	AVG(v(vds)/id(m1))	FROM	TO
     1	9844.32	0	1.67475e-008
     2	9912.01	0	1.68142e-008
     3	9981.14	0	1.68823e-008
     4	10053.4	0	1.69521e-008
     5	10127.9	0	1.70236e-008
     6	10204.1	0	1.70967e-008
     7	10281.8	0	1.71716e-008
     8	10361.3	0	1.72482e-008
     9	10442.5	0	1.73266e-008
    10	10525.5	0	1.74068e-008
    11	10610.4	0	1.74889e-008
    12	10697.1	0	1.75728e-008
    13	10785.8	0	1.76586e-008
    14	10876.5	0	1.77465e-008
    15	10969.2	0	1.78364e-008
    16	11064.1	0	1.79284e-008
    17	11161.2	0	1.80224e-008
    18	11260.6	0	1.81185e-008
    19	11362.4	0	1.82166e-008
    20	11466.6	0	1.83169e-008
    21	11573.2	0	1.84203e-008
    22	11682.3	0	1.85263e-008
    23	11794.2	0	1.86342e-008
    24	11908.9	0	1.87441e-008
    25	12026.7	0	1.88561e-008
    26	12147.6	0	1.897e-008
    27	12271.8	0	1.90859e-008
    28	12399.3	0	1.92038e-008
    29	12530.5	0	1.93236e-008
    30	12665.4	0	1.94452e-008
    31	12804.3	0	1.95687e-008
    32	12947.4	0	1.96938e-008
    33	13094.9	0	1.98206e-008
    34	13247.1	0	1.99488e-008
    35	13404.2	0	2.00784e-008
    36	13566.7	0	2.02092e-008
    37	13734.9	0	2.03409e-008
    38	13909.2	0	2.04734e-008
    39	14090	0	2.06062e-008
    40	14296.1	0	2.06486e-008
    41	14565.2	0	2.09851e-008
    42	14732.2	0	2.11061e-008
    43	14914.1	0	2.11762e-008
    44	15093.4	0	2.1287e-008
    45	15277.4	0	2.14022e-008
    46	15466.4	0	2.15218e-008
    47	15644.9	0	2.17037e-008
    48	15829.5	0	2.18906e-008
    49	16016.2	0	2.20605e-008
    50	16213.6	0	2.22558e-008
    51	16418.2	0	2.24545e-008
    52	16630.3	0	2.26567e-008
    53	16850.1	0	2.2863e-008
    54	17077.9	0	2.30736e-008
    55	17314.3	0	2.3289e-008
    56	17559.4	0	2.35096e-008
    57	17813.7	0	2.37357e-008
    58	18081.1	0	2.39713e-008
    59	18359.2	0	2.42149e-008
    60	18647.5	0	2.44659e-008
    61	18945.3	0	2.47235e-008
    62	19252.3	0	2.49865e-008
    63	19571.1	0	2.52579e-008
    64	19906.6	0	2.55447e-008
    65	20256.7	0	2.58435e-008
    66	20620.4	0	2.61531e-008
    67	20998.5	0	2.64738e-008
    68	21391.9	0	2.68062e-008
    69	21816.3	0	2.70863e-008
    70	22246.5	0	2.74296e-008
    71	22694.6	0	2.77875e-008
    72	23161.8	0	2.81609e-008
    73	23649.4	0	2.85506e-008
    74	24159.1	0	2.89576e-008
    75	24692.5	0	2.9383e-008
    76	25251.8	0	2.9828e-008
    77	25833.9	0	3.03306e-008
    78	26451.9	0	3.08234e-008
    79	27104.2	0	3.13411e-008
    80	27795.1	0	3.18854e-008
    81	28529.6	0	3.24579e-008
    82	29396.1	0	3.31259e-008
    83	30071.6	0	3.36256e-008
    84	30785.2	0	3.41441e-008
    85	31541.1	0	3.4695e-008
    86	32344	0	3.52907e-008
    87	33196	0	3.59163e-008
    88	34104.3	0	3.65576e-008
    89	35065.4	0	3.72581e-008
    90	36087.8	0	3.79953e-008
    91	37173.1	0	3.87652e-008
    92	38325.5	0	3.95669e-008
    93	39556.7	0	4.04067e-008
    94	40866.9	0	4.13073e-008
    95	42268.4	0	4.22769e-008
    96	43778.1	0	4.33572e-008
    97	45397.5	0	4.45184e-008
    98	47139.2	0	4.57659e-008
    99	49017.2	0	4.71168e-008
   100	51043.4	0	4.86152e-008
   101	53251	0	5.02529e-008
   102	55664.6	0	5.20907e-008
   103	58377.8	0	5.43718e-008
   104	61007.6	0	5.58003e-008
   105	63866.7	0	5.73997e-008
   106	66998.6	0	5.91648e-008
   107	70423	0	6.11748e-008
   108	74182.9	0	6.33749e-008
   109	78256.4	0	6.59936e-008
   110	82785.4	0	6.89283e-008
   111	87863.7	0	7.21399e-008
   112	93579.6	0	7.58046e-008
   113	100021	0	7.9969e-008
   114	107328	0	8.48315e-008
   115	115774	0	9.08838e-008
   116	124840	0	9.5494e-008
   117	135169	0	1.00823e-007
   118	146979	0	1.07041e-007
   119	160593	0	1.14232e-007
   120	176426	0	1.22767e-007
   121	194831	0	1.33909e-007


Date: Mon Nov 08 10:32:54 2021
Total elapsed time: 4.935 seconds.

tnom = 27
temp = 27
method = modified trap
totiter = 2124
traniter = 2121
tranpoints = 1056
accept = 1051
rejected = 5
matrix size = 3
fillins = 0
solver = Normal
Matrix Compiler1: 50 bytes object code size  0.0/0.0/[0.0]
Matrix Compiler2: off  [0.0]/0.1/0.0

