Circuit: * C:\Users\CHAITANYA VARUN\Desktop\my_files\Semester_5\VLSI Design\Assignment-2\Problem_1\Prob_1a2.asc

Ignoring BSIM parameter XL
Ignoring BSIM parameter XW
Warning: Pd = 0 is less than W.
Warning: Ps = 0 is less than W.
Direct Newton iteration for .op point succeeded.
.step x=0.6
.step x=0.61
.step x=0.62
.step x=0.63
.step x=0.64
.step x=0.65
.step x=0.66
.step x=0.67
.step x=0.68
.step x=0.69
.step x=0.7
.step x=0.71
.step x=0.72
.step x=0.73
.step x=0.74
.step x=0.75
.step x=0.76
.step x=0.77
.step x=0.78
.step x=0.79
.step x=0.8
.step x=0.81
.step x=0.82
.step x=0.83
.step x=0.84
.step x=0.85
.step x=0.86
.step x=0.87
.step x=0.88
.step x=0.89
.step x=0.9
.step x=0.91
.step x=0.92
.step x=0.93
.step x=0.94
.step x=0.95
.step x=0.96
.step x=0.97
.step x=0.98
.step x=0.99
.step x=1
.step x=1.01
.step x=1.02
.step x=1.03
.step x=1.04
.step x=1.05
.step x=1.06
.step x=1.07
.step x=1.08
.step x=1.09
.step x=1.1
.step x=1.11
.step x=1.12
.step x=1.13
.step x=1.14
.step x=1.15
.step x=1.16
.step x=1.17
.step x=1.18
.step x=1.19
.step x=1.2
.step x=1.21
.step x=1.22
.step x=1.23
.step x=1.24
.step x=1.25
.step x=1.26
.step x=1.27
.step x=1.28
.step x=1.29
.step x=1.3
.step x=1.31
.step x=1.32
.step x=1.33
.step x=1.34
.step x=1.35
.step x=1.36
.step x=1.37
.step x=1.38
.step x=1.39
.step x=1.4
.step x=1.41
.step x=1.42
.step x=1.43
.step x=1.44
.step x=1.45
.step x=1.46
.step x=1.47
.step x=1.48
.step x=1.49
.step x=1.5
.step x=1.51
.step x=1.52
.step x=1.53
.step x=1.54
.step x=1.55
.step x=1.56
.step x=1.57
.step x=1.58
.step x=1.59
.step x=1.6
.step x=1.61
.step x=1.62
.step x=1.63
.step x=1.64
.step x=1.65
.step x=1.66
.step x=1.67
.step x=1.68
.step x=1.69
.step x=1.7
.step x=1.71
.step x=1.72
.step x=1.73
.step x=1.74
.step x=1.75
.step x=1.76
.step x=1.77
.step x=1.78
.step x=1.79
.step x=1.8


Measurement: req
  step	AVG(v(vds)/id(m1))	FROM	TO
     1	134195	0	9.67646e-008
     2	119898	0	8.56235e-008
     3	107850	0	7.68494e-008
     4	97620	0	6.93168e-008
     5	88948.3	0	6.28894e-008
     6	81220.5	0	5.72142e-008
     7	74552.8	0	5.22654e-008
     8	68739.1	0	4.82112e-008
     9	63642.6	0	4.46794e-008
    10	59156.8	0	4.15778e-008
    11	55186.8	0	3.88297e-008
    12	51662.8	0	3.62879e-008
    13	48542.1	0	3.40281e-008
    14	45744.5	0	3.17699e-008
    15	43135.4	0	2.97743e-008
    16	40796.6	0	2.81399e-008
    17	38672	0	2.66861e-008
    18	36735.4	0	2.53701e-008
    19	34965.3	0	2.41696e-008
    20	33343.3	0	2.30702e-008
    21	31853.1	0	2.20615e-008
    22	30478.6	0	2.11396e-008
    23	29206.7	0	2.02864e-008
    24	28025.8	0	1.94948e-008
    25	26931.5	0	1.87414e-008
    26	25920.8	0	1.80382e-008
    27	24985.5	0	1.74006e-008
    28	24072	0	1.64909e-008
    29	23240.8	0	1.58445e-008
    30	22449.3	0	1.52981e-008
    31	21705.6	0	1.47939e-008
    32	21005.7	0	1.4322e-008
    33	20345.8	0	1.38786e-008
    34	19722.9	0	1.34609e-008
    35	19134.1	0	1.30666e-008
    36	18577.1	0	1.26939e-008
    37	18049.2	0	1.23423e-008
    38	17548.4	0	1.20089e-008
    39	17073.5	0	1.16932e-008
    40	16621.9	0	1.1394e-008
    41	16191.9	0	1.111e-008
    42	15781.1	0	1.08424e-008
    43	15389.2	0	1.05864e-008
    44	15014.7	0	1.03389e-008
    45	14657.2	0	1.00995e-008
    46	14316.1	0	9.87376e-009
    47	13990.6	0	9.66102e-009
    48	13679.8	0	9.46031e-009
    49	13365.9	0	9.18201e-009
    50	13070.2	0	8.93691e-009
    51	12790.4	0	8.71566e-009
    52	12524.2	0	8.50936e-009
    53	12268.8	0	8.31864e-009
    54	12023.8	0	8.13837e-009
    55	11787.9	0	7.96862e-009
    56	11557.9	0	7.8138e-009
    57	11336.6	0	7.66587e-009
    58	11123.3	0	7.52355e-009
    59	10917.7	0	7.38652e-009
    60	10719.3	0	7.25449e-009
    61	10527.9	0	7.12722e-009
    62	10343.1	0	7.00449e-009
    63	10164.6	0	6.88608e-009
    64	9992.2	0	6.77181e-009
    65	9825.51	0	6.66153e-009
    66	9664.3	0	6.55505e-009
    67	9508.15	0	6.45269e-009
    68	9357.12	0	6.35341e-009
    69	9210.81	0	6.25747e-009
    70	9068.99	0	6.16471e-009
    71	8931.44	0	6.07499e-009
    72	8797.96	0	5.98818e-009
    73	8668.35	0	5.90415e-009
    74	8542.48	0	5.82279e-009
    75	8420.19	0	5.74403e-009
    76	8301.29	0	5.66722e-009
    77	8185.06	0	5.59261e-009
    78	8072.6	0	5.51984e-009
    79	7963.35	0	5.44967e-009
    80	7857.19	0	5.38206e-009
    81	7754.01	0	5.31692e-009
    82	7653.68	0	5.25414e-009
    83	7556.07	0	5.19355e-009
    84	7461.05	0	5.135e-009
    85	7368.5	0	5.07827e-009
    86	7266.96	0	4.97637e-009
    87	7174.11	0	4.90151e-009
    88	7084.38	0	4.83123e-009
    89	6997.49	0	4.76468e-009
    90	6913.51	0	4.70036e-009
    91	6831.57	0	4.63976e-009
    92	6752	0	4.58097e-009
    93	6674.59	0	4.52424e-009
    94	6599.2	0	4.46941e-009
    95	6525.74	0	4.41628e-009
    96	6454.14	0	4.36473e-009
    97	6384.04	0	4.31461e-009
    98	6315.92	0	4.26584e-009
    99	6249.47	0	4.21831e-009
   100	6184.62	0	4.17196e-009
   101	6121.33	0	4.12672e-009
   102	6059.55	0	4.08248e-009
   103	5999.25	0	4.03928e-009
   104	5940.33	0	3.99719e-009
   105	5881.76	0	3.95822e-009
   106	5824.68	0	3.92052e-009
   107	5768.85	0	3.8837e-009
   108	5714.2	0	3.84769e-009
   109	5660.65	0	3.81262e-009
   110	5608.28	0	3.77819e-009
   111	5557	0	3.74453e-009
   112	5506.76	0	3.7116e-009
   113	5457.55	0	3.67939e-009
   114	5409.33	0	3.64788e-009
   115	5362.07	0	3.61704e-009
   116	5315.73	0	3.58686e-009
   117	5270.3	0	3.55733e-009
   118	5225.74	0	3.52842e-009
   119	5182.02	0	3.50012e-009
   120	5139.13	0	3.47242e-009
   121	5097.04	0	3.44531e-009


Date: Mon Nov 08 10:16:35 2021
Total elapsed time: 4.669 seconds.

tnom = 27
temp = 27
method = modified trap
totiter = 2142
traniter = 2138
tranpoints = 1066
accept = 1061
rejected = 5
matrix size = 3
fillins = 0
solver = Normal
Matrix Compiler1:       3 opcodes  0.0/[0.0]/0.0
Matrix Compiler2: 175 bytes object code size  0.0/0.1/[0.0]

