Circuit: * C:\Users\CHAITANYA VARUN\Desktop\my_files\Semester_5\VLSI Design\Assignment-2\Problem_1\Prob_1b.asc

Ignoring BSIM parameter XL
Ignoring BSIM parameter XW
Warning: Pd = 0 is less than W.
Warning: Ps = 0 is less than W.
Direct Newton iteration for .op point succeeded.
.step x=-1.8
.step x=-1.79
.step x=-1.78
.step x=-1.77
.step x=-1.76
.step x=-1.75
.step x=-1.74
.step x=-1.73
.step x=-1.72
.step x=-1.71
.step x=-1.7
.step x=-1.69
.step x=-1.68
.step x=-1.67
.step x=-1.66
.step x=-1.65
.step x=-1.64
.step x=-1.63
.step x=-1.62
.step x=-1.61
.step x=-1.6
.step x=-1.59
.step x=-1.58
.step x=-1.57
.step x=-1.56
.step x=-1.55
.step x=-1.54
.step x=-1.53
.step x=-1.52
.step x=-1.51
.step x=-1.5
.step x=-1.49
.step x=-1.48
.step x=-1.47
.step x=-1.46
.step x=-1.45
.step x=-1.44
.step x=-1.43
.step x=-1.42
.step x=-1.41
.step x=-1.4
.step x=-1.39
.step x=-1.38
.step x=-1.37
.step x=-1.36
.step x=-1.35
.step x=-1.34
.step x=-1.33
.step x=-1.32
.step x=-1.31
.step x=-1.3
.step x=-1.29
.step x=-1.28
.step x=-1.27
.step x=-1.26
.step x=-1.25
.step x=-1.24
.step x=-1.23
.step x=-1.22
.step x=-1.21
.step x=-1.2
.step x=-1.19
.step x=-1.18
.step x=-1.17
.step x=-1.16
.step x=-1.15
.step x=-1.14
.step x=-1.13
.step x=-1.12
.step x=-1.11
.step x=-1.1
.step x=-1.09
.step x=-1.08
.step x=-1.07
.step x=-1.06
.step x=-1.05
.step x=-1.04
.step x=-1.03
.step x=-1.02
.step x=-1.01
.step x=-1
.step x=-0.99
.step x=-0.98
.step x=-0.97
.step x=-0.96
.step x=-0.95
.step x=-0.94
.step x=-0.93
.step x=-0.92
.step x=-0.91
.step x=-0.9
.step x=-0.89
.step x=-0.88
.step x=-0.87
.step x=-0.86
.step x=-0.85
.step x=-0.84
.step x=-0.83
.step x=-0.82
.step x=-0.81
.step x=-0.8
.step x=-0.79
.step x=-0.78
.step x=-0.77
.step x=-0.76
.step x=-0.75
.step x=-0.74
.step x=-0.73
.step x=-0.72
.step x=-0.71
.step x=-0.7
.step x=-0.69
.step x=-0.68
.step x=-0.67
.step x=-0.66
.step x=-0.65
.step x=-0.64
.step x=-0.63
.step x=-0.62
.step x=-0.61
.step x=-0.6


Measurement: req
  step	AVG(v(vds)/id(m1))	FROM	TO
     1	13754.1	0	2.36304e-008
     2	13866.2	0	2.37518e-008
     3	13980.8	0	2.3876e-008
     4	14098.1	0	2.40032e-008
     5	14218.1	0	2.41334e-008
     6	14341	0	2.42666e-008
     7	14466.8	0	2.44028e-008
     8	14595.7	0	2.45419e-008
     9	14727.8	0	2.46841e-008
    10	14863.2	0	2.48293e-008
    11	15002.1	0	2.49774e-008
    12	15144.6	0	2.51285e-008
    13	15414.4	0	2.53327e-008
    14	15560.1	0	2.54709e-008
    15	15635.8	0	2.56282e-008
    16	15773.7	0	2.57751e-008
    17	15914.1	0	2.59293e-008
    18	16057.8	0	2.60875e-008
    19	16204.9	0	2.62496e-008
    20	16353.1	0	2.63818e-008
    21	16507.4	0	2.65546e-008
    22	16665.6	0	2.6732e-008
    23	16827.6	0	2.69145e-008
    24	16993.6	0	2.71022e-008
    25	17163.7	0	2.72957e-008
    26	17338.1	0	2.74953e-008
    27	17517.2	0	2.77014e-008
    28	17722.1	0	2.76856e-008
    29	17913.9	0	2.78545e-008
    30	18103.9	0	2.80655e-008
    31	18309.8	0	2.82222e-008
    32	18520.8	0	2.83847e-008
    33	18737.3	0	2.85532e-008
    34	18959.4	0	2.87276e-008
    35	19187.4	0	2.89081e-008
    36	19421.5	0	2.90948e-008
    37	19661.8	0	2.92878e-008
    38	19908.7	0	2.94873e-008
    39	20162.3	0	2.96935e-008
    40	20423.7	0	2.99107e-008
    41	20695.6	0	3.01559e-008
    42	20975.3	0	3.04097e-008
    43	21263.2	0	3.06724e-008
    44	21559.6	0	3.09442e-008
    45	21864.8	0	3.12255e-008
    46	22179.1	0	3.15166e-008
    47	22502.9	0	3.18177e-008
    48	22836.7	0	3.21292e-008
    49	23180.7	0	3.24516e-008
    50	23535.6	0	3.27852e-008
    51	23901.8	0	3.31305e-008
    52	24279.8	0	3.34879e-008
    53	24670.2	0	3.3858e-008
    54	25073.5	0	3.42413e-008
    55	25490.6	0	3.46385e-008
    56	25922	0	3.50502e-008
    57	26368.7	0	3.54771e-008
    58	26831.4	0	3.59201e-008
    59	27311.3	0	3.638e-008
    60	27809.4	0	3.68577e-008
    61	28326.9	0	3.73542e-008
    62	28881.6	0	3.7791e-008
    63	29564.5	0	3.87372e-008
    64	30080.4	0	3.91292e-008
    65	30636.7	0	3.94316e-008
    66	31198.1	0	3.98108e-008
    67	31780.6	0	4.02046e-008
    68	32383.4	0	4.06139e-008
    69	33011.9	0	4.09704e-008
    70	33660.2	0	4.14235e-008
    71	34334.1	0	4.18949e-008
    72	35035.1	0	4.23862e-008
    73	35764.8	0	4.28989e-008
    74	36518	0	4.34708e-008
    75	37283.3	0	4.41763e-008
    76	38086.1	0	4.49008e-008
    77	38921.9	0	4.56469e-008
    78	39792.9	0	4.64141e-008
    79	40717.5	0	4.72038e-008
    80	41703.7	0	4.80208e-008
    81	42739.7	0	4.88673e-008
    82	43835.8	0	4.97109e-008
    83	44993.6	0	5.058e-008
    84	46205.1	0	5.15083e-008
    85	47481.7	0	5.2476e-008
    86	48829	0	5.34862e-008
    87	50254	0	5.45419e-008
    88	51764.9	0	5.56462e-008
    89	53360.3	0	5.687e-008
    90	55075.3	0	5.80925e-008
    91	56916.8	0	5.93754e-008
    92	59068.9	0	6.15254e-008
    93	60882.1	0	6.25166e-008
    94	62791.3	0	6.35797e-008
    95	64758.7	0	6.49057e-008
    96	66836.1	0	6.64275e-008
    97	69077.7	0	6.79875e-008
    98	71477.4	0	6.96863e-008
    99	74061.1	0	7.14758e-008
   100	76833.3	0	7.33218e-008
   101	79821.1	0	7.5257e-008
   102	83033.5	0	7.73359e-008
   103	86504.1	0	7.95736e-008
   104	90272.4	0	8.20666e-008
   105	94355.1	0	8.47582e-008
   106	98790.4	0	8.76782e-008
   107	103615	0	9.09213e-008
   108	108908	0	9.45014e-008
   109	114746	0	9.85705e-008
   110	121146	0	1.02991e-007
   111	127705	0	1.06259e-007
   112	134906	0	1.09937e-007
   113	142845	0	1.13973e-007
   114	151632	0	1.18569e-007
   115	161438	0	1.23779e-007
   116	172353	0	1.29874e-007
   117	184488	0	1.37306e-007
   118	198432	0	1.46679e-007
   119	213752	0	1.5409e-007
   120	231165	0	1.62555e-007
   121	251079	0	1.72366e-007


Date: Mon Nov 08 10:27:42 2021
Total elapsed time: 5.028 seconds.

tnom = 27
temp = 27
method = modified trap
totiter = 2120
traniter = 2117
tranpoints = 1055
accept = 1050
rejected = 5
matrix size = 3
fillins = 0
solver = Normal
Matrix Compiler1: 50 bytes object code size  0.0/0.0/[0.0]
Matrix Compiler2:      15 opcodes  0.0/[0.0]/0.0

