Circuit: * C:\Users\CHAITANYA VARUN\Desktop\my_files\Semester_5\VLSI Design\Assignment-2\Problem_1\Prob_1a.asc

Ignoring BSIM parameter XL
Ignoring BSIM parameter XW
Warning: Pd = 0 is less than W.
Warning: Ps = 0 is less than W.
Direct Newton iteration for .op point succeeded.
.step x=0.6
.step x=0.61
.step x=0.62
.step x=0.63
.step x=0.64
.step x=0.65
.step x=0.66
.step x=0.67
.step x=0.68
.step x=0.69
.step x=0.7
.step x=0.71
.step x=0.72
.step x=0.73
.step x=0.74
.step x=0.75
.step x=0.76
.step x=0.77
.step x=0.78
.step x=0.79
.step x=0.8
.step x=0.81
.step x=0.82
.step x=0.83
.step x=0.84
.step x=0.85
.step x=0.86
.step x=0.87
.step x=0.88
.step x=0.89
.step x=0.9
.step x=0.91
.step x=0.92
.step x=0.93
.step x=0.94
.step x=0.95
.step x=0.96
.step x=0.97
.step x=0.98
.step x=0.99
.step x=1
.step x=1.01
.step x=1.02
.step x=1.03
.step x=1.04
.step x=1.05
.step x=1.06
.step x=1.07
.step x=1.08
.step x=1.09
.step x=1.1
.step x=1.11
.step x=1.12
.step x=1.13
.step x=1.14
.step x=1.15
.step x=1.16
.step x=1.17
.step x=1.18
.step x=1.19
.step x=1.2
.step x=1.21
.step x=1.22
.step x=1.23
.step x=1.24
.step x=1.25
.step x=1.26
.step x=1.27
.step x=1.28
.step x=1.29
.step x=1.3
.step x=1.31
.step x=1.32
.step x=1.33
.step x=1.34
.step x=1.35
.step x=1.36
.step x=1.37
.step x=1.38
.step x=1.39
.step x=1.4
.step x=1.41
.step x=1.42
.step x=1.43
.step x=1.44
.step x=1.45
.step x=1.46
.step x=1.47
.step x=1.48
.step x=1.49
.step x=1.5
.step x=1.51
.step x=1.52
.step x=1.53
.step x=1.54
.step x=1.55
.step x=1.56
.step x=1.57
.step x=1.58
.step x=1.59
.step x=1.6
.step x=1.61
.step x=1.62
.step x=1.63
.step x=1.64
.step x=1.65
.step x=1.66
.step x=1.67
.step x=1.68
.step x=1.69
.step x=1.7
.step x=1.71
.step x=1.72
.step x=1.73
.step x=1.74
.step x=1.75
.step x=1.76
.step x=1.77
.step x=1.78
.step x=1.79
.step x=1.8


Measurement: req
  step	AVG(v(vds)/id(m1))	FROM	TO
     1	169674	0	1.20368e-007
     2	152733	0	1.09256e-007
     3	138328	0	9.94294e-008
     4	125871	0	8.9535e-008
     5	115176	0	8.18454e-008
     6	105904	0	7.51711e-008
     7	97829.5	0	6.92868e-008
     8	90886.9	0	6.39656e-008
     9	84476.2	0	5.91998e-008
    10	78828.8	0	5.49773e-008
    11	73807.4	0	5.14681e-008
    12	69312.1	0	4.83689e-008
    13	65274.8	0	4.55909e-008
    14	61637.3	0	4.30869e-008
    15	58343.2	0	4.08392e-008
    16	55347	0	3.87858e-008
    17	52624.2	0	3.68294e-008
    18	50148.5	0	3.5081e-008
    19	47906.2	0	3.35049e-008
    20	45759.6	0	3.14623e-008
    21	43786.1	0	3.00579e-008
    22	41962.3	0	2.87998e-008
    23	40270.7	0	2.76489e-008
    24	38698	0	2.65843e-008
    25	37233.1	0	2.55948e-008
    26	35865.5	0	2.46744e-008
    27	34587.5	0	2.38135e-008
    28	33391.1	0	2.30089e-008
    29	32268.9	0	2.22561e-008
    30	31213.8	0	2.15501e-008
    31	30217.4	0	2.08936e-008
    32	29277.3	0	2.02708e-008
    33	28389.5	0	1.96754e-008
    34	27553.2	0	1.9101e-008
    35	26765	0	1.8569e-008
    36	26021.9	0	1.80744e-008
    37	25277.2	0	1.73581e-008
    38	24595.9	0	1.67969e-008
    39	23953.3	0	1.6294e-008
    40	23337.8	0	1.58448e-008
    41	22744.7	0	1.5442e-008
    42	22179.3	0	1.50612e-008
    43	21639.5	0	1.46989e-008
    44	21123.8	0	1.43534e-008
    45	20630.6	0	1.40236e-008
    46	20158.7	0	1.37083e-008
    47	19706.9	0	1.34067e-008
    48	19273.9	0	1.31181e-008
    49	18858.9	0	1.28417e-008
    50	18460.4	0	1.2578e-008
    51	18078.1	0	1.23246e-008
    52	17710.8	0	1.20817e-008
    53	17357.5	0	1.18488e-008
    54	17017.5	0	1.16252e-008
    55	16689.9	0	1.14104e-008
    56	16374.1	0	1.12038e-008
    57	16069.4	0	1.10051e-008
    58	15774.2	0	1.08173e-008
    59	15489.7	0	1.06284e-008
    60	15214.9	0	1.04478e-008
    61	14950.3	0	1.02752e-008
    62	14695	0	1.01104e-008
    63	14448.6	0	9.95313e-009
    64	14210.7	0	9.8027e-009
    65	13980.6	0	9.65837e-009
    66	13733.4	0	9.40225e-009
    67	13508.9	0	9.2217e-009
    68	13293.5	0	9.05442e-009
    69	13086.8	0	8.89425e-009
    70	12886.8	0	8.74434e-009
    71	12693.4	0	8.60141e-009
    72	12506.3	0	8.46445e-009
    73	12324.9	0	8.33254e-009
    74	12149.1	0	8.20545e-009
    75	11978.7	0	8.08256e-009
    76	11812.6	0	7.96543e-009
    77	11649.5	0	7.85629e-009
    78	11491.2	0	7.75094e-009
    79	11337.2	0	7.6486e-009
    80	11187.5	0	7.54915e-009
    81	11041.8	0	7.45248e-009
    82	10900	0	7.3585e-009
    83	10762	0	7.26711e-009
    84	10627.6	0	7.17822e-009
    85	10496.8	0	7.09176e-009
    86	10369.3	0	7.00763e-009
    87	10245	0	6.92612e-009
    88	10123.9	0	6.84647e-009
    89	10005.8	0	6.76894e-009
    90	9890.61	0	6.69345e-009
    91	9778.22	0	6.61994e-009
    92	9668.5	0	6.54832e-009
    93	9561.37	0	6.47854e-009
    94	9456.71	0	6.41054e-009
    95	9354.44	0	6.34426e-009
    96	9254.48	0	6.27965e-009
    97	9156.75	0	6.21666e-009
    98	9061.18	0	6.15526e-009
    99	8967.71	0	6.0954e-009
   100	8876.28	0	6.03706e-009
   101	8786.84	0	5.9802e-009
   102	8699.11	0	5.92354e-009
   103	8613.31	0	5.86818e-009
   104	8529.4	0	5.81433e-009
   105	8446.71	0	5.76369e-009
   106	8366.33	0	5.71313e-009
   107	8287.68	0	5.66401e-009
   108	8210.7	0	5.6163e-009
   109	8135.32	0	5.56991e-009
   110	8061.49	0	5.52479e-009
   111	7989.15	0	5.48087e-009
   112	7918.24	0	5.43805e-009
   113	7848.7	0	5.39627e-009
   114	7780.47	0	5.35545e-009
   115	7713.52	0	5.31551e-009
   116	7633.89	0	5.22556e-009
   117	7565.16	0	5.1711e-009
   118	7498.14	0	5.11898e-009
   119	7432.74	0	5.06891e-009
   120	7368.85	0	5.02067e-009
   121	7306.4	0	4.97404e-009


Date: Mon Nov 08 10:08:01 2021
Total elapsed time: 4.630 seconds.

tnom = 27
temp = 27
method = modified trap
totiter = 2146
traniter = 2142
tranpoints = 1067
accept = 1061
rejected = 6
matrix size = 3
fillins = 0
solver = Normal
Matrix Compiler1: off  [0.0]/0.0/0.0
Matrix Compiler2:      15 opcodes  0.0/[0.0]/0.0

