Circuit: * C:\Users\CHAITANYA VARUN\Desktop\my_files\Semester_5\VLSI Design\Assignment-4\Problem-1\design_1.asc

Ignoring BSIM parameter XL
Ignoring BSIM parameter XW
Ignoring BSIM parameter XL
Ignoring BSIM parameter XW
Warning: Pd = 0 is less than W.
Warning: Ps = 0 is less than W.
Warning: Pd = 0 is less than W.
Warning: Ps = 0 is less than W.
Warning: Pd = 0 is less than W.
Warning: Ps = 0 is less than W.
Warning: Pd = 0 is less than W.
Warning: Ps = 0 is less than W.
Warning: Pd = 0 is less than W.
Warning: Ps = 0 is less than W.
Warning: Pd = 0 is less than W.
Warning: Ps = 0 is less than W.
Warning: Pd = 0 is less than W.
Warning: Ps = 0 is less than W.
Warning: Pd = 0 is less than W.
Warning: Ps = 0 is less than W.
.OP point found by inspection.
Changing Tseed to 1e-008
Changing Tseed to 1e-010
Changing Tseed to 1e-007
Changing Tseed to 1e-011

Date: Sat Dec 11 11:56:07 2021
Total elapsed time: 1.716 seconds.

tnom = 27
temp = 27
method = modified trap
totiter = 20260
traniter = 20260
tranpoints = 4022
accept = 3412
rejected = 606
matrix size = 79
fillins = 20
solver = Normal
Thread vector: 68.5/37.3[8] 28.8/13.1[8] 7.9/7.6[1] 0.9/3.1[1]  2592/500
Matrix Compiler1: 12.55 KB object code size  4.6/2.8/[0.6]
Matrix Compiler2: 11.28 KB object code size  1.8/2.9/[0.5]

